ieee123/ieee123_single_file.glm
////////////////////////////////////////////////////////
// BEGIN
////////////////////////////////////////////////////////
// filename... ieee123_single_file.glm
// workdir.... /Users/david/Documents/GitHub/slacgismo/gridlabd-models/ieee123
// command.... /usr/local/opt/gridlabd/4.2.29-211225-develop/bin/gridlabd.bin -D glm_save_options=MINIMAL model/ieee123.glm -o ieee123_single_file.glm
// created.... Tue Dec 28 09:11:59 2021
// user....... david
// host....... (null)
// modules.... 4
// classes.... 83
// objects.... 326
// options.... MINIMAL

////////////////////////////////////////////////////////

// CLOCK
clock {
	timezone "PST8PDT";
	starttime "2018-03-01 00:00:00 PST";
	stoptime "2018-03-03 04:15:00 PST";
}

////////////////////////////////////////////////////////
// modules
module climate {
	message_flags "";
	library_path "/usr/local/opt/gridlabd/4.2.29-211225-develop/share/gridlabd/weather/US";
}
module powerflow {
	message_flags "";
	show_matrix_values "FALSE";
	primary_voltage_ratio "+60 pu";
	nominal_frequency "+60 Hz";
	require_voltage_control "FALSE";
	geographic_degree "+0";
	fault_impedance "+1e-06+0j Ohm";
	ground_impedance "+1e-06+0j Ohm";
	warning_underfrequency "+55 Hz";
	warning_overfrequency "+65 Hz";
	warning_undervoltage "+0.8 V";
	warning_overvoltage "+1.2 V";
	warning_voltageangle "+2";
	maximum_voltage_error "+1e-06 V";
	solver_method "NR";
	NR_matrix_file "";
	NR_matrix_output_interval "NEVER";
	NR_matrix_output_references "FALSE";
	NR_matrix_output_rhs "FALSE";
	NR_island_failure_handled "FALSE";
	line_capacitance "TRUE";
	line_limits "TRUE";
	lu_solver "";
	NR_iteration_limit "500";
	NR_deltamode_iteration_limit "10";
	NR_superLU_procs "1";
	default_maximum_voltage_error "+1e-06 pu";
	default_maximum_power_error "+0.0001 pu";
	NR_admit_change "FALSE";
	enable_subsecond_models "FALSE";
	all_powerflow_delta "FALSE";
	deltamode_timestep "+1e+07 ns";
	current_frequency "+60 Hz";
	master_frequency_update "FALSE";
	enable_frequency_dependence "FALSE";
	default_resistance "+0.0001 Ohm";
	enable_inrush "FALSE";
	low_voltage_impedance_level "+0.7 pu";
	enable_mesh_fault_current "FALSE";
	convergence_error_handling "IGNORE";
	solver_profile_enable "TRUE";
	solver_profile_filename "solver_nr_profile.csv";
	solver_profile_headers_included "TRUE";
	solver_headers "timestamp,duration[microsec],iteration,bus_count,branch_count,error";
	solver_py_config "/usr/local/var/gridlabd/solver_py.conf";
	solver_dump_enable "FALSE";
	violation_record "";
	violation_count "0";
	violation_active "0";
	violation_watchset "ALL";
	market_price_name "current_market.clearing_price";
	repair_time "+24 h";
	wind_speed_name "wind_speed";
	wind_dir_name "wind_dir";
	wind_gust_name "wind_gust";
	stop_on_pole_failure "FALSE";
	climate_impact_zone "NONE";
}
module generators {
	message_flags "";
	enable_subsecond_models "FALSE";
	deltamode_timestep "+1e+07 ns";
}
module residential {
	message_flags "";
	default_line_voltage "+240+0d V";
	default_line_current "+0+0j A";
	default_outdoor_temperature "+74 degF";
	default_humidity "+75 %";
	default_solar "+0 Btu/sf";
	default_etp_iterations "100";
	ANSI_voltage_check "TRUE";
	enable_subsecond_models "FALSE";
	deltamode_timestep "+1e+07 ns";
	all_house_delta "FALSE";
	implicit_enduses "DRYER|CLOTHESWASHER|WATERHEATER|RANGE|REFRIGERATOR|FREEZER|MICROWAVE|DISHWASHER|PLUGS|LIGHTS";
	implicit_enduse_source "ELCAP1990";
	house_low_temperature_warning "+55 degF";
	house_high_temperature_warning "+95 degF";
	thermostat_control_warning "+4.94066e-324";
	system_dwell_time "+1 s";
	aux_cutin_temperature "+10 degF";
	paneldump_filename "paneldump.csv";
	paneldump_interval "0";
	paneldump_resolution "+0";
}

////////////////////////////////////////////////////////
// classes
class solar {
	set phases;
}
// schedules

////////////////////////////////////////////////////////
// objects
object climate.climate {
	name "weather";
	latitude "35N25:60.00";
	longitude "119W2:60.00";
	guid "682564AAF482C0CD77B723E22B4AAB96";
	solar_elevation "-0.478066 rad";
	solar_azimuth "+1.32415 rad";
	solar_zenith "+2.04886 rad";
	tmyfile "data/CA-Bakersfield_Meadows_Field_high_wind.tmy3";
	temperature "+46.2276 degF";
	humidity "+0.757812 pu";
	extraterrestrial_direct_normal "+0 W/sf";
	pressure "+1002.09 mbar";
	wind_speed "+2.38437 m/s";
	wind_dir "+93.4375 rad";
	record.low "+30.922 degF";
	record.high "+107.962 degF";
	record.solar "+95.2906 W/sf";
	rainfall "+0.43307 in/h";
	interpolate "QUADRATIC";
	opq_sky_cov "+0.3 pu";
	heat_index "+45.1699 degF";
}
object powerflow.overhead_line_conductor {
	name "olc301c";
	guid "4A6F5A82BFAFDEC33C59151AA0DB8DE";
	geometric_mean_radius "+0.0244 ft";
	resistance "+0.306 Ohm/mile";
	diameter "+0.721 in";
}
object powerflow.overhead_line_conductor {
	name "olc301n";
	guid "50B019AB28D2506D7216E20A6AEE6751";
	geometric_mean_radius "+0.00814 ft";
	resistance "+0.592 Ohm/mile";
	diameter "+0.563 in";
}
object powerflow.overhead_line_conductor {
	name "olc309";
	guid "2D2A25F6F717BCF427D7D16FEAA58F1B";
	geometric_mean_radius "+0.00446 ft";
	resistance "+1.12 Ohm/mile";
	diameter "+0.398 in";
}
object powerflow.underground_line_conductor {
	name "ulc312";
	guid "21054418974D2E8669F8018778088AC";
	outer_diameter "+1.06 in";
	conductor_gmr "+0.0111 ft";
	conductor_diameter "+0.368 in";
	conductor_resistance "+0.97 Ohm/mile";
	neutral_gmr "+0.00208 ft";
	neutral_diameter "+0.0640837 in";
	neutral_resistance "+14.8722 Ohm/mile";
	neutral_strands "16";
}
object powerflow.line_spacing {
	name "ls500301";
	guid "6F93D3894550FA6A31330E589EBE4F83";
	distance_AB "+2.5 ft";
	distance_BC "+4.5 ft";
	distance_AC "+7 ft";
	distance_AN "+5.65685 ft";
	distance_BN "+4.272 ft";
	distance_CN "+5 ft";
	distance_AE "+28 ft";
	distance_BE "+28 ft";
	distance_CE "+28 ft";
	distance_NE "+24 ft";
}
object powerflow.line_spacing {
	name "ls500302";
	guid "72BE58E589DA3961F4E20F67E2B03D6";
	distance_AB "+4.5 ft";
	distance_BC "+7 ft";
	distance_AC "+2.5 ft";
	distance_AN "+4.272 ft";
	distance_BN "+5 ft";
	distance_CN "+5.65685 ft";
	distance_AE "+28 ft";
	distance_BE "+28 ft";
	distance_CE "+28 ft";
	distance_NE "+24 ft";
}
object powerflow.line_spacing {
	name "ls500303";
	guid "60567C12FC36612E18F8D29688D92761";
	distance_AB "+7 ft";
	distance_BC "+2.5 ft";
	distance_AC "+4.5 ft";
	distance_AN "+5 ft";
	distance_BN "+5.65685 ft";
	distance_CN "+4.272 ft";
	distance_AE "+28 ft";
	distance_BE "+28 ft";
	distance_CE "+28 ft";
	distance_NE "+24 ft";
}
object powerflow.line_spacing {
	name "ls500304";
	guid "25E29E296F00F085192839EF09400619";
	distance_AB "+4.5 ft";
	distance_BC "+2.5 ft";
	distance_AC "+7 ft";
	distance_AN "+5 ft";
	distance_BN "+4.272 ft";
	distance_CN "+5.65685 ft";
	distance_AE "+28 ft";
	distance_BE "+28 ft";
	distance_CE "+28 ft";
	distance_NE "+24 ft";
}
object powerflow.line_spacing {
	name "ls500305";
	guid "55DEF6A90E33D7922635631E074B9447";
	distance_AB "+2.5 ft";
	distance_BC "+7 ft";
	distance_AC "+4.5 ft";
	distance_AN "+4.272 ft";
	distance_BN "+5.65685 ft";
	distance_CN "+5 ft";
	distance_AE "+28 ft";
	distance_BE "+28 ft";
	distance_CE "+28 ft";
	distance_NE "+24 ft";
}
object powerflow.line_spacing {
	name "ls500306";
	guid "5960BB2E3B2A7BC265CAE05334AE3BA9";
	distance_AB "+2.5 ft";
	distance_BC "+4.5 ft";
	distance_AC "+7 ft";
	distance_AN "+5.65685 ft";
	distance_BN "+4.272 ft";
	distance_CN "+5 ft";
	distance_AE "+28 ft";
	distance_BE "+28 ft";
	distance_CE "+28 ft";
	distance_NE "+24 ft";
}
object powerflow.line_spacing {
	name "ls505307";
	guid "4C2CB8C12BB1B90F50F66C041E7DF79C";
	distance_AC "+7 ft";
	distance_AN "+5.65685 ft";
	distance_CN "+5 ft";
	distance_AE "+28 ft";
	distance_CE "+28 ft";
	distance_NE "+24 ft";
}
object powerflow.line_spacing {
	name "ls505308";
	guid "76E41734CAFF5FA53F5FD1B1DFFD555";
	distance_AB "+7 ft";
	distance_AN "+5.65685 ft";
	distance_BN "+5 ft";
	distance_AE "+28 ft";
	distance_BE "+28 ft";
	distance_NE "+24 ft";
}
object powerflow.line_spacing {
	name "ls510309";
	guid "5A2744A8C4085365457A30E5F4E7F57";
	distance_AN "+5.02494 ft";
	distance_AE "+28 ft";
	distance_NE "+24 ft";
}
object powerflow.line_spacing {
	name "ls510310";
	guid "40BE6690AB6989966F230682D0C5B3A2";
	distance_BN "+5.02494 ft";
	distance_BE "+28 ft";
	distance_NE "+24 ft";
}
object powerflow.line_spacing {
	name "ls510311";
	guid "7ED693DBA3E190B37F940059E91B9CD6";
	distance_CN "+5.02494 ft";
	distance_CE "+28 ft";
	distance_NE "+24 ft";
}
object powerflow.line_spacing {
	name "ls515312";
	guid "5C3D28123AC4820D6615DFAFEEDC40E3";
	distance_AB "+0.5 ft";
	distance_BC "+0.5 ft";
	distance_AC "+1 ft";
}
object powerflow.line_configuration {
	name "lc301";
	guid "561B4B8043C60DE56172CF5C82CE81F";
	conductor_A "olc301c";
	conductor_B "olc301c";
	conductor_C "olc301c";
	conductor_N "olc301n";
	spacing "ls500301";
}
object powerflow.line_configuration {
	name "lc302";
	guid "3D64309368FE6DAB68627E4A548EBFCA";
	conductor_A "olc301c";
	conductor_B "olc301c";
	conductor_C "olc301c";
	conductor_N "olc301n";
	spacing "ls500302";
}
object powerflow.line_configuration {
	name "lc303";
	guid "41AE3F17A9E57273E88C78CEFE88F3D";
	conductor_A "olc301c";
	conductor_B "olc301c";
	conductor_C "olc301c";
	conductor_N "olc301n";
	spacing "ls500303";
}
object powerflow.line_configuration {
	name "lc304";
	guid "15852AD76A5253A4B09F625F8DEB642";
	conductor_A "olc301c";
	conductor_B "olc301c";
	conductor_C "olc301c";
	conductor_N "olc301n";
	spacing "ls500304";
}
object powerflow.line_configuration {
	name "lc305";
	guid "3CD3C1AF59E2517E01EFE110BD4EB";
	conductor_A "olc301c";
	conductor_B "olc301c";
	conductor_C "olc301c";
	conductor_N "olc301n";
	spacing "ls500305";
}
object powerflow.line_configuration {
	name "lc306";
	guid "701FA2F74055F2BE43FF8AD049D36142";
	conductor_A "olc301c";
	conductor_B "olc301c";
	conductor_C "olc301c";
	conductor_N "olc301n";
	spacing "ls500306";
}
object powerflow.line_configuration {
	name "lc307";
	guid "23408A109196EADB137502FF8BEEFEE4";
	conductor_A "olc301c";
	conductor_C "olc301c";
	conductor_N "olc301n";
	spacing "ls505307";
}
object powerflow.line_configuration {
	name "lc308";
	guid "5A2B9572CD1C0708CC1674D44A91672";
	conductor_A "olc301c";
	conductor_B "olc301c";
	conductor_N "olc301n";
	spacing "ls505308";
}
object powerflow.line_configuration {
	name "lc309";
	guid "41CA8E7A82A11472370E4AB7BEC9C3C9";
	conductor_A "olc309";
	conductor_N "olc309";
	spacing "ls510309";
}
object powerflow.line_configuration {
	name "lc310";
	guid "746FCC5C3298FDCD3BE39B988A206089";
	conductor_B "olc309";
	conductor_N "olc309";
	spacing "ls510310";
}
object powerflow.line_configuration {
	name "lc311";
	guid "41458641A5859B9C1F1B16BEFEC9B32";
	conductor_C "olc309";
	conductor_N "olc309";
	spacing "ls510311";
}
object powerflow.line_configuration {
	name "lc312";
	guid "40C82A74BDB53C2D259E005EAEB6F4BC";
	conductor_A "ulc312";
	conductor_B "ulc312";
	conductor_C "ulc312";
	spacing "ls515312";
}
object powerflow.transformer_configuration {
	name "tc500";
	guid "3C6A93C0D83BAFEB79F0A90E140915F5";
	connect_type "DELTA_DELTA";
	install_type "PADMOUNT";
	primary_voltage "+4160 V";
	secondary_voltage "+480 V";
	power_rating "+150 kVA";
	powerA_rating "+50 kVA";
	powerB_rating "+50 kVA";
	powerC_rating "+50 kVA";
	resistance "+0.0127 pu*Ohm";
	reactance "+0.0272 pu*Ohm";
	impedance "+0.0127+0.0272j pu*Ohm";
	reactance_resistance_ratio "+4.5";
}
object powerflow.transformer_configuration {
	name "tc9999";
	guid "7A8104469DB30E481366A08906D7EBF1";
	connect_type "DELTA_GWYE";
	install_type "PADMOUNT";
	primary_voltage "+115 V";
	secondary_voltage "+4160 V";
	power_rating "+5000 kVA";
	powerA_rating "+1666.67 kVA";
	powerB_rating "+1666.67 kVA";
	powerC_rating "+1666.67 kVA";
	resistance "+0.01 pu*Ohm";
	reactance "+0.08 pu*Ohm";
	impedance "+0.01+0.08j pu*Ohm";
	reactance_resistance_ratio "+4.5";
}
object powerflow.regulator_configuration {
	name "rc501";
	guid "52A8AAFF0F19A8921D7FC2EFB06BEA01";
	connect_type "WYE_WYE";
	band_center "+2400 V";
	band_width "+40 V";
	time_delay "+30 s";
	raise_taps "16";
	lower_taps "16";
	current_transducer_ratio "+700 pu";
	power_transducer_ratio "+20 pu";
	compensator_r_setting_A "+3 V";
	compensator_x_setting_A "+7.5 V";
	CT_phase "A";
	PT_phase "A";
	regulation "+0.1 %";
	Control "OUTPUT_VOLTAGE";
	Type "A";
	tap_pos_A "0";
	tap_pos_B "0";
	tap_pos_C "0";
}
object powerflow.regulator_configuration {
	name "rc502";
	guid "49A0A74EA75CE302227148EC2F31B071";
	connect_type "WYE_WYE";
	band_center "+2400 V";
	band_width "+40 V";
	time_delay "+30 s";
	raise_taps "16";
	lower_taps "16";
	current_transducer_ratio "+50 pu";
	power_transducer_ratio "+20 pu";
	compensator_r_setting_A "+0.4 V";
	compensator_x_setting_A "+0.4 V";
	CT_phase "A";
	PT_phase "A";
	regulation "+0.1 %";
	Control "OUTPUT_VOLTAGE";
	Type "A";
	tap_pos_A "-1";
	tap_pos_B "0";
	tap_pos_C "0";
}
object powerflow.regulator_configuration {
	name "rc503";
	guid "16EF7BB7962932B23BC04E4E1933ACEB";
	connect_type "WYE_WYE";
	band_center "+2400 V";
	band_width "+20 V";
	time_delay "+30 s";
	raise_taps "16";
	lower_taps "16";
	current_transducer_ratio "+50 pu";
	power_transducer_ratio "+20 pu";
	compensator_r_setting_A "+0.4 V";
	compensator_r_setting_C "+0.4 V";
	compensator_x_setting_A "+0.4 V";
	compensator_x_setting_C "+0.4 V";
	CT_phase "CA";
	PT_phase "CA";
	regulation "+0.1 %";
	Control "OUTPUT_VOLTAGE";
	Type "A";
	tap_pos_A "0";
	tap_pos_B "0";
	tap_pos_C "-1";
}
object powerflow.regulator_configuration {
	name "rc504";
	guid "21352F15644FBB8C1950DDE590F97441";
	connect_type "WYE_WYE";
	band_center "+2400 V";
	band_width "+40 V";
	time_delay "+30 s";
	raise_taps "16";
	lower_taps "16";
	current_transducer_ratio "+300 pu";
	power_transducer_ratio "+20 pu";
	compensator_r_setting_A "+0.6 V";
	compensator_r_setting_B "+1.4 V";
	compensator_r_setting_C "+0.2 V";
	compensator_x_setting_A "+1.3 V";
	compensator_x_setting_B "+2.6 V";
	compensator_x_setting_C "+1.4 V";
	regulation "+0.1 %";
	Control "OUTPUT_VOLTAGE";
	Type "A";
	tap_pos_A "8";
	tap_pos_B "1";
	tap_pos_C "5";
}
object powerflow.node {
	name "node_3";
	groupid "nodevolts";
	latitude "35N23:4.56";
	longitude "119W0:7.92";
	guid "71837987BE6285FF2B94CD084BA15E66";
	maximum_voltage_error "+0.00240178 V";
	voltage_C "+2373.01+119.501d V";
	voltage_BC "+1168.57-2065.33j V";
	voltage_CA "+2373.01+119.501d V";
	frequency_measure_type "NONE";
	sfm_Tf "+0.01 s";
	pll_Kp "+10 pu";
	pll_Ki "+100 pu";
	measured_frequency_A "+60 Hz";
	measured_frequency_B "+60 Hz";
	measured_frequency_C "+60 Hz";
	measured_frequency "+60 Hz";
	service_status "IN_SERVICE";
	service_status_double "-1";
	previous_uptime "-1 min";
	current_uptime "+3135 min";
	GFA_freq_low_trip "+59.5 Hz";
	GFA_freq_high_trip "+60.5 Hz";
	GFA_volt_low_trip "+0.8 pu";
	GFA_volt_high_trip "+1.2 pu";
	GFA_reconnect_time "+300 s";
	GFA_freq_disconnect_time "+0.2 s";
	GFA_volt_disconnect_time "+0.2 s";
	GFA_status "TRUE";
	// class.parent = powerflow.powerflow_object
	phases "CN";
	nominal_voltage "+2401.78 V";
}
object powerflow.node {
	name "node_8";
	groupid "nodevolts";
	latitude "35N23:7.02";
	longitude "119W0:1.86";
	guid "18ACC850AE21F7CF447916F022164EAA";
	maximum_voltage_error "+0.00240178 V";
	voltage_A "+2343.47-0.548508d V";
	voltage_B "+2360.56-120.667d V";
	voltage_C "+2349.94+118.997d V";
	voltage_AB "+4076.25+29.5121d V";
	voltage_BC "+4086.31-90.9093d V";
	voltage_CA "+4055.26+149.178d V";
	frequency_measure_type "NONE";
	sfm_Tf "+0.01 s";
	pll_Kp "+10 pu";
	pll_Ki "+100 pu";
	measured_frequency_A "+60 Hz";
	measured_frequency_B "+60 Hz";
	measured_frequency_C "+60 Hz";
	measured_frequency "+60 Hz";
	service_status "IN_SERVICE";
	service_status_double "-1";
	previous_uptime "-1 min";
	current_uptime "+3135 min";
	GFA_freq_low_trip "+59.5 Hz";
	GFA_freq_high_trip "+60.5 Hz";
	GFA_volt_low_trip "+0.8 pu";
	GFA_volt_high_trip "+1.2 pu";
	GFA_reconnect_time "+300 s";
	GFA_freq_disconnect_time "+0.2 s";
	GFA_volt_disconnect_time "+0.2 s";
	GFA_status "TRUE";
	// class.parent = powerflow.powerflow_object
	phases "ABCN";
	nominal_voltage "+2401.78 V";
}
object powerflow.node {
	name "node_13";
	groupid "nodevolts";
	latitude "35N23:7.02";
	longitude "118W59:58.26";
	guid "44CC220536E5E8BC71ACDE26A45F5C4F";
	maximum_voltage_error "+0.00240178 V";
	voltage_A "+2319.93-0.941153d V";
	voltage_B "+2351.62-120.877d V";
	voltage_C "+2331.69+118.738d V";
	voltage_AB "+4044.41+29.3157d V";
	voltage_BC "+4063.73-91.2092d V";
	voltage_CA "+4021.9+148.814d V";
	frequency_measure_type "NONE";
	sfm_Tf "+0.01 s";
	pll_Kp "+10 pu";
	pll_Ki "+100 pu";
	measured_frequency_A "+60 Hz";
	measured_frequency_B "+60 Hz";
	measured_frequency_C "+60 Hz";
	measured_frequency "+60 Hz";
	service_status "IN_SERVICE";
	service_status_double "-1";
	previous_uptime "-1 min";
	current_uptime "+3135 min";
	GFA_freq_low_trip "+59.5 Hz";
	GFA_freq_high_trip "+60.5 Hz";
	GFA_volt_low_trip "+0.8 pu";
	GFA_volt_high_trip "+1.2 pu";
	GFA_reconnect_time "+300 s";
	GFA_freq_disconnect_time "+0.2 s";
	GFA_volt_disconnect_time "+0.2 s";
	GFA_status "TRUE";
	// class.parent = powerflow.powerflow_object
	phases "ABCN";
	nominal_voltage "+2401.78 V";
}
object powerflow.substation {
	name "node_14";
	groupid "nodevolts";
	latitude "35N23:13.44";
	longitude "119W0:1.86";
	guid "1019820915D0BB9969DA4052A166390B";
	base_power "+100 VA";
	power_convergence_value "+1 VA";
	distribution_load "+67051.5+26.5739d VA";
	distribution_power_A "+67051.5+26.5739d VA";
	distribution_voltage_A "+2401.78+0d V";
	distribution_voltage_AB "+2401.78+0d V";
	distribution_voltage_CA "-2401.78+0j V";
	distribution_current_A "+24.9682-12.4889j A";
	// class.parent = powerflow.node
	bustype "SWING";
	maximum_voltage_error "+0.00240178 V";
	voltage_A "+2401.78+0d V";
	voltage_AB "+2401.78+0d V";
	voltage_CA "-2401.78+0j V";
	frequency_measure_type "NONE";
	sfm_Tf "+0.01 s";
	pll_Kp "+10 pu";
	pll_Ki "+100 pu";
	measured_frequency_A "+60 Hz";
	measured_frequency_B "+60 Hz";
	measured_frequency_C "+60 Hz";
	measured_frequency "+60 Hz";
	service_status "IN_SERVICE";
	service_status_double "-1";
	previous_uptime "-1 min";
	current_uptime "+3135 min";
	GFA_freq_low_trip "+59.5 Hz";
	GFA_freq_high_trip "+60.5 Hz";
	GFA_volt_low_trip "+0.8 pu";
	GFA_volt_high_trip "+1.2 pu";
	GFA_reconnect_time "+300 s";
	GFA_freq_disconnect_time "+0.2 s";
	GFA_volt_disconnect_time "+0.2 s";
	GFA_status "TRUE";
	// class.parent = powerflow.powerflow_object
	phases "AN";
	nominal_voltage "+2401.78 V";
}
object powerflow.meter {
	parent "node_14";
	name "substation_meter";
	groupid "nodevolts";
	latitude "35N23:13.44";
	longitude "119W0:1.86";
	guid "2522A0EC523E958565953E92B19AB9CF";
	measured_energy_delta_timestep "-1 s";
	measured_voltage_A "+2401.78+0d V";
	measured_voltage_AB "+2401.78+0d V";
	measured_voltage_CA "-2401.78+0j V";
	// class.parent = powerflow.node
	maximum_voltage_error "+0.00240178 V";
	voltage_A "+2401.78+0d V";
	voltage_AB "+2401.78+0d V";
	voltage_CA "-2401.78+0j V";
	frequency_measure_type "NONE";
	sfm_Tf "+0.01 s";
	pll_Kp "+10 pu";
	pll_Ki "+100 pu";
	measured_frequency_A "+60 Hz";
	measured_frequency_B "+60 Hz";
	measured_frequency_C "+60 Hz";
	measured_frequency "+60 Hz";
	service_status "IN_SERVICE";
	service_status_double "-1";
	previous_uptime "-1 min";
	current_uptime "+3135 min";
	GFA_freq_low_trip "+59.5 Hz";
	GFA_freq_high_trip "+60.5 Hz";
	GFA_volt_low_trip "+0.8 pu";
	GFA_volt_high_trip "+1.2 pu";
	GFA_reconnect_time "+300 s";
	GFA_freq_disconnect_time "+0.2 s";
	GFA_volt_disconnect_time "+0.2 s";
	GFA_status "TRUE";
	topological_parent "node_14";
	// class.parent = powerflow.powerflow_object
	phases "AN";
	nominal_voltage "+2401.78 V";
}
object powerflow.node {
	name "node_15";
	groupid "nodevolts";
	latitude "35N23:4.56";
	longitude "118W59:58.26";
	guid "6F90CCAE56D379896368A2BB8F0E789D";
	maximum_voltage_error "+0.00240178 V";
	voltage_C "+2328.33+118.71d V";
	voltage_BC "+1118.46-2042.09j V";
	voltage_CA "+2328.33+118.71d V";
	frequency_measure_type "NONE";
	sfm_Tf "+0.01 s";
	pll_Kp "+10 pu";
	pll_Ki "+100 pu";
	measured_frequency_A "+60 Hz";
	measured_frequency_B "+60 Hz";
	measured_frequency_C "+60 Hz";
	measured_frequency "+60 Hz";
	service_status "IN_SERVICE";
	service_status_double "-1";
	previous_uptime "-1 min";
	current_uptime "+3135 min";
	GFA_freq_low_trip "+59.5 Hz";
	GFA_freq_high_trip "+60.5 Hz";
	GFA_volt_low_trip "+0.8 pu";
	GFA_volt_high_trip "+1.2 pu";
	GFA_reconnect_time "+300 s";
	GFA_freq_disconnect_time "+0.2 s";
	GFA_volt_disconnect_time "+0.2 s";
	GFA_status "TRUE";
	// class.parent = powerflow.powerflow_object
	phases "CN";
	nominal_voltage "+2401.78 V";
}
object powerflow.node {
	name "node_18";
	groupid "nodevolts";
	latitude "35N23:15.18";
	longitude "118W59:58.26";
	guid "73A3F23577AAC88B65CF7FA561725EF7";
	maximum_voltage_error "+0.00240178 V";
	voltage_A "+2298.52-1.39321d V";
	voltage_B "+2341.96-121.127d V";
	voltage_C "+2313.03+118.657d V";
	voltage_AB "+4013.43+29.0512d V";
	voltage_BC "+4035.74-91.4394d V";
	voltage_CA "+3994.75+148.528d V";
	frequency_measure_type "NONE";
	sfm_Tf "+0.01 s";
	pll_Kp "+10 pu";
	pll_Ki "+100 pu";
	measured_frequency_A "+60 Hz";
	measured_frequency_B "+60 Hz";
	measured_frequency_C "+60 Hz";
	measured_frequency "+60 Hz";
	service_status "IN_SERVICE";
	service_status_double "-1";
	previous_uptime "-1 min";
	current_uptime "+3135 min";
	GFA_freq_low_trip "+59.5 Hz";
	GFA_freq_high_trip "+60.5 Hz";
	GFA_volt_low_trip "+0.8 pu";
	GFA_volt_high_trip "+1.2 pu";
	GFA_reconnect_time "+300 s";
	GFA_freq_disconnect_time "+0.2 s";
	GFA_volt_disconnect_time "+0.2 s";
	GFA_status "TRUE";
	// class.parent = powerflow.powerflow_object
	phases "ABCN";
	nominal_voltage "+2401.78 V";
}
object powerflow.node {
	name "node_21";
	groupid "nodevolts";
	latitude "35N23:18.12";
	longitude "118W59:58.26";
	guid "516CC7441668A5F470AE30D920A4DCFF";
	maximum_voltage_error "+0.00240178 V";
	voltage_A "+2297.29-1.44969d V";
	voltage_B "+2342.14-121.123d V";
	voltage_C "+2310.03+118.632d V";
	voltage_AB "+4011.3+29.0354d V";
	voltage_BC "+4033.89-91.4731d V";
	voltage_CA "+3991.69+148.5d V";
	frequency_measure_type "NONE";
	sfm_Tf "+0.01 s";
	pll_Kp "+10 pu";
	pll_Ki "+100 pu";
	measured_frequency_A "+60 Hz";
	measured_frequency_B "+60 Hz";
	measured_frequency_C "+60 Hz";
	measured_frequency "+60 Hz";
	service_status "IN_SERVICE";
	service_status_double "-1";
	previous_uptime "-1 min";
	current_uptime "+3135 min";
	GFA_freq_low_trip "+59.5 Hz";
	GFA_freq_high_trip "+60.5 Hz";
	GFA_volt_low_trip "+0.8 pu";
	GFA_volt_high_trip "+1.2 pu";
	GFA_reconnect_time "+300 s";
	GFA_freq_disconnect_time "+0.2 s";
	GFA_volt_disconnect_time "+0.2 s";
	GFA_status "TRUE";
	// class.parent = powerflow.powerflow_object
	phases "ABCN";
	nominal_voltage "+2401.78 V";
}
object powerflow.node {
	name "node_23";
	groupid "nodevolts";
	latitude "35N23:20.58";
	longitude "118W59:58.26";
	guid "2BFEA22F004A2C362AD713CDCC14694F";
	maximum_voltage_error "+0.00240178 V";
	voltage_A "+2296.35-1.50623d V";
	voltage_B "+2343.05-121.105d V";
	voltage_C "+2307.19+118.613d V";
	voltage_AB "+4009.75+29.0302d V";
	voltage_BC "+4032.98-91.4997d V";
	voltage_CA "+3989.17+148.476d V";
	frequency_measure_type "NONE";
	sfm_Tf "+0.01 s";
	pll_Kp "+10 pu";
	pll_Ki "+100 pu";
	measured_frequency_A "+60 Hz";
	measured_frequency_B "+60 Hz";
	measured_frequency_C "+60 Hz";
	measured_frequency "+60 Hz";
	service_status "IN_SERVICE";
	service_status_double "-1";
	previous_uptime "-1 min";
	current_uptime "+3135 min";
	GFA_freq_low_trip "+59.5 Hz";
	GFA_freq_high_trip "+60.5 Hz";
	GFA_volt_low_trip "+0.8 pu";
	GFA_volt_high_trip "+1.2 pu";
	GFA_reconnect_time "+300 s";
	GFA_freq_disconnect_time "+0.2 s";
	GFA_volt_disconnect_time "+0.2 s";
	GFA_status "TRUE";
	// class.parent = powerflow.powerflow_object
	phases "ABCN";
	nominal_voltage "+2401.78 V";
}
object powerflow.node {
	name "node_25";
	groupid "nodevolts";
	latitude "35N23:23.28";
	longitude "118W59:58.26";
	guid "67A47A782EEF4E374F5E1B03718ED5ED";
	maximum_voltage_error "+0.00240178 V";
	voltage_A "+2294.8-1.56533d V";
	voltage_B "+2344.14-121.094d V";
	voltage_C "+2304.96+118.611d V";
	voltage_AB "+4007.95+29.0253d V";
	voltage_BC "+4032.25-91.5188d V";
	voltage_CA "+3987.05+148.45d V";
	frequency_measure_type "NONE";
	sfm_Tf "+0.01 s";
	pll_Kp "+10 pu";
	pll_Ki "+100 pu";
	measured_frequency_A "+60 Hz";
	measured_frequency_B "+60 Hz";
	measured_frequency_C "+60 Hz";
	measured_frequency "+60 Hz";
	service_status "IN_SERVICE";
	service_status_double "-1";
	previous_uptime "-1 min";
	current_uptime "+3135 min";
	GFA_freq_low_trip "+59.5 Hz";
	GFA_freq_high_trip "+60.5 Hz";
	GFA_volt_low_trip "+0.8 pu";
	GFA_volt_high_trip "+1.2 pu";
	GFA_reconnect_time "+300 s";
	GFA_freq_disconnect_time "+0.2 s";
	GFA_volt_disconnect_time "+0.2 s";
	GFA_status "TRUE";
	// class.parent = powerflow.powerflow_object
	phases "ABCN";
	nominal_voltage "+2401.78 V";
}
object powerflow.node {
	name "node_26";
	groupid "nodevolts";
	latitude "35N23:23.28";
	longitude "119W0:2.46";
	guid "35474BAEC06F7E8849385132DA10111F";
	maximum_voltage_error "+0.00240178 V";
	voltage_A "+2394.59-1.59155d V";
	voltage_C "+2390.19+118.601d V";
	voltage_AB "+2394.59-1.59155d V";
	voltage_BC "+1144.2-2098.53j V";
	voltage_CA "+4147.75+148.535d V";
	frequency_measure_type "NONE";
	sfm_Tf "+0.01 s";
	pll_Kp "+10 pu";
	pll_Ki "+100 pu";
	measured_frequency_A "+60 Hz";
	measured_frequency_B "+60 Hz";
	measured_frequency_C "+60 Hz";
	measured_frequency "+60 Hz";
	service_status "IN_SERVICE";
	service_status_double "-1";
	previous_uptime "-1 min";
	current_uptime "+3135 min";
	GFA_freq_low_trip "+59.5 Hz";
	GFA_freq_high_trip "+60.5 Hz";
	GFA_volt_low_trip "+0.8 pu";
	GFA_volt_high_trip "+1.2 pu";
	GFA_reconnect_time "+300 s";
	GFA_freq_disconnect_time "+0.2 s";
	GFA_volt_disconnect_time "+0.2 s";
	GFA_status "TRUE";
	// class.parent = powerflow.powerflow_object
	phases "ACN";
	nominal_voltage "+2401.78 V";
}
object powerflow.node {
	name "node_27";
	groupid "nodevolts";
	latitude "35N23:23.28";
	longitude "119W0:5.82";
	guid "6C1B21C7C6FDC2B42AE2E8D92F13CA15";
	maximum_voltage_error "+0.00240178 V";
	voltage_A "+2393.72-1.60917d V";
	voltage_C "+2390.11+118.61d V";
	voltage_AB "+2393.72-1.60917d V";
	voltage_BC "+1144.5-2098.27j V";
	voltage_CA "+4147.49+148.525d V";
	frequency_measure_type "NONE";
	sfm_Tf "+0.01 s";
	pll_Kp "+10 pu";
	pll_Ki "+100 pu";
	measured_frequency_A "+60 Hz";
	measured_frequency_B "+60 Hz";
	measured_frequency_C "+60 Hz";
	measured_frequency "+60 Hz";
	service_status "IN_SERVICE";
	service_status_double "-1";
	previous_uptime "-1 min";
	current_uptime "+3135 min";
	GFA_freq_low_trip "+59.5 Hz";
	GFA_freq_high_trip "+60.5 Hz";
	GFA_volt_low_trip "+0.8 pu";
	GFA_volt_high_trip "+1.2 pu";
	GFA_reconnect_time "+300 s";
	GFA_freq_disconnect_time "+0.2 s";
	GFA_volt_disconnect_time "+0.2 s";
	GFA_status "TRUE";
	// class.parent = powerflow.powerflow_object
	phases "ACN";
	nominal_voltage "+2401.78 V";
}
object powerflow.node {
	name "node_36";
	groupid "nodevolts";
	latitude "35N23:8.76";
	longitude "118W59:53.70";
	guid "5C2F4247CDA00AE729D0A520691FD23";
	maximum_voltage_error "+0.00240178 V";
	voltage_A "+2289.77-1.50158d V";
	voltage_B "+2334.65-121.264d V";
	voltage_AB "+4000.13+28.9398d V";
	voltage_BC "+2334.65-121.264d V";
	voltage_CA "-2288.98+60.0024j V";
	frequency_measure_type "NONE";
	sfm_Tf "+0.01 s";
	pll_Kp "+10 pu";
	pll_Ki "+100 pu";
	measured_frequency_A "+60 Hz";
	measured_frequency_B "+60 Hz";
	measured_frequency_C "+60 Hz";
	measured_frequency "+60 Hz";
	service_status "IN_SERVICE";
	service_status_double "-1";
	previous_uptime "-1 min";
	current_uptime "+3135 min";
	GFA_freq_low_trip "+59.5 Hz";
	GFA_freq_high_trip "+60.5 Hz";
	GFA_volt_low_trip "+0.8 pu";
	GFA_volt_high_trip "+1.2 pu";
	GFA_reconnect_time "+300 s";
	GFA_freq_disconnect_time "+0.2 s";
	GFA_volt_disconnect_time "+0.2 s";
	GFA_status "TRUE";
	// class.parent = powerflow.powerflow_object
	phases "ABN";
	nominal_voltage "+2401.78 V";
}
object powerflow.node {
	name "node_40";
	groupid "nodevolts";
	latitude "35N23:17.64";
	longitude "118W59:53.70";
	guid "6BEEA29C74C5494F72EBB8DD00C7186A";
	maximum_voltage_error "+0.00240178 V";
	voltage_A "+2288.29-1.52293d V";
	voltage_B "+2333.19-121.261d V";
	voltage_C "+2307.8+118.545d V";
	voltage_AB "+3997.1+28.9309d V";
	voltage_BC "+4023.15-91.5385d V";
	voltage_CA "+3981.7+148.371d V";
	frequency_measure_type "NONE";
	sfm_Tf "+0.01 s";
	pll_Kp "+10 pu";
	pll_Ki "+100 pu";
	measured_frequency_A "+60 Hz";
	measured_frequency_B "+60 Hz";
	measured_frequency_C "+60 Hz";
	measured_frequency "+60 Hz";
	service_status "IN_SERVICE";
	service_status_double "-1";
	previous_uptime "-1 min";
	current_uptime "+3135 min";
	GFA_freq_low_trip "+59.5 Hz";
	GFA_freq_high_trip "+60.5 Hz";
	GFA_volt_low_trip "+0.8 pu";
	GFA_volt_high_trip "+1.2 pu";
	GFA_reconnect_time "+300 s";
	GFA_freq_disconnect_time "+0.2 s";
	GFA_volt_disconnect_time "+0.2 s";
	GFA_status "TRUE";
	// class.parent = powerflow.powerflow_object
	phases "ABCN";
	nominal_voltage "+2401.78 V";
}
object powerflow.node {
	name "node_44";
	groupid "nodevolts";
	latitude "35N23:22.08";
	longitude "118W59:53.70";
	guid "69BA65BC8BEE04675E15C9F7D9CFFD2";
	maximum_voltage_error "+0.00240178 V";
	voltage_A "+2281.87-1.59272d V";
	voltage_B "+2328.87-121.342d V";
	voltage_C "+2303.62+118.474d V";
	voltage_AB "+3988.04+28.8717d V";
	voltage_BC "+4015.6-91.6136d V";
	voltage_CA "+3972.5+148.284d V";
	frequency_measure_type "NONE";
	sfm_Tf "+0.01 s";
	pll_Kp "+10 pu";
	pll_Ki "+100 pu";
	measured_frequency_A "+60 Hz";
	measured_frequency_B "+60 Hz";
	measured_frequency_C "+60 Hz";
	measured_frequency "+60 Hz";
	service_status "IN_SERVICE";
	service_status_double "-1";
	previous_uptime "-1 min";
	current_uptime "+3135 min";
	GFA_freq_low_trip "+59.5 Hz";
	GFA_freq_high_trip "+60.5 Hz";
	GFA_volt_low_trip "+0.8 pu";
	GFA_volt_high_trip "+1.2 pu";
	GFA_reconnect_time "+300 s";
	GFA_freq_disconnect_time "+0.2 s";
	GFA_volt_disconnect_time "+0.2 s";
	GFA_status "TRUE";
	// class.parent = powerflow.powerflow_object
	phases "ABCN";
	nominal_voltage "+2401.78 V";
}
object powerflow.node {
	name "node_54";
	groupid "nodevolts";
	latitude "35N23:7.02";
	longitude "118W59:49.44";
	guid "3DC65172AD3F422829004619ECB7EA9E";
	maximum_voltage_error "+0.00240178 V";
	voltage_A "+2284.59-1.47525d V";
	voltage_B "+2336.16-121.263d V";
	voltage_C "+2307.22+118.351d V";
	voltage_AB "+3997.49+29.0016d V";
	voltage_BC "+4029.1-91.6607d V";
	voltage_CA "+3973.15+148.274d V";
	frequency_measure_type "NONE";
	sfm_Tf "+0.01 s";
	pll_Kp "+10 pu";
	pll_Ki "+100 pu";
	measured_frequency_A "+60 Hz";
	measured_frequency_B "+60 Hz";
	measured_frequency_C "+60 Hz";
	measured_frequency "+60 Hz";
	service_status "IN_SERVICE";
	service_status_double "-1";
	previous_uptime "-1 min";
	current_uptime "+3135 min";
	GFA_freq_low_trip "+59.5 Hz";
	GFA_freq_high_trip "+60.5 Hz";
	GFA_volt_low_trip "+0.8 pu";
	GFA_volt_high_trip "+1.2 pu";
	GFA_reconnect_time "+300 s";
	GFA_freq_disconnect_time "+0.2 s";
	GFA_volt_disconnect_time "+0.2 s";
	GFA_status "TRUE";
	// class.parent = powerflow.powerflow_object
	phases "ABCN";
	nominal_voltage "+2401.78 V";
}
object powerflow.node {
	name "node_57";
	groupid "nodevolts";
	latitude "35N23:10.50";
	longitude "118W59:49.44";
	guid "3D49A785E30805D77E1C5521D6507B40";
	maximum_voltage_error "+0.00240178 V";
	voltage_A "+2271.7-1.74438d V";
	voltage_B "+2324.52-121.414d V";
	voltage_C "+2296.55+118.168d V";
	voltage_AB "+3973.89+28.8036d V";
	voltage_BC "+4010.39-91.8213d V";
	voltage_CA "+3954.5+148.032d V";
	frequency_measure_type "NONE";
	sfm_Tf "+0.01 s";
	pll_Kp "+10 pu";
	pll_Ki "+100 pu";
	measured_frequency_A "+60 Hz";
	measured_frequency_B "+60 Hz";
	measured_frequency_C "+60 Hz";
	measured_frequency "+60 Hz";
	service_status "IN_SERVICE";
	service_status_double "-1";
	previous_uptime "-1 min";
	current_uptime "+3135 min";
	GFA_freq_low_trip "+59.5 Hz";
	GFA_freq_high_trip "+60.5 Hz";
	GFA_volt_low_trip "+0.8 pu";
	GFA_volt_high_trip "+1.2 pu";
	GFA_reconnect_time "+300 s";
	GFA_freq_disconnect_time "+0.2 s";
	GFA_volt_disconnect_time "+0.2 s";
	GFA_status "TRUE";
	// class.parent = powerflow.powerflow_object
	phases "ABCN";
	nominal_voltage "+2401.78 V";
}
object powerflow.node {
	name "node_61";
	groupid "nodevolts";
	latitude "35N23:6.96";
	longitude "118W59:34.32";
	guid "732524EEBF640CF8350F53BCF7A90AB3";
	maximum_voltage_error "+0.00240178 V";
	voltage_A "+2244.51-2.35922d V";
	voltage_B "+2302.01-121.69d V";
	voltage_C "+2272.39+117.779d V";
	voltage_AB "+3924.17+28.3993d V";
	voltage_BC "+3972.13-92.1676d V";
	voltage_CA "+3914.49+147.506d V";
	frequency_measure_type "NONE";
	sfm_Tf "+0.01 s";
	pll_Kp "+10 pu";
	pll_Ki "+100 pu";
	measured_frequency_A "+60 Hz";
	measured_frequency_B "+60 Hz";
	measured_frequency_C "+60 Hz";
	measured_frequency "+60 Hz";
	service_status "IN_SERVICE";
	service_status_double "-1";
	previous_uptime "-1 min";
	current_uptime "+3135 min";
	GFA_freq_low_trip "+59.5 Hz";
	GFA_freq_high_trip "+60.5 Hz";
	GFA_volt_low_trip "+0.8 pu";
	GFA_volt_high_trip "+1.2 pu";
	GFA_reconnect_time "+300 s";
	GFA_freq_disconnect_time "+0.2 s";
	GFA_volt_disconnect_time "+0.2 s";
	GFA_status "TRUE";
	// class.parent = powerflow.powerflow_object
	phases "ABCN";
	nominal_voltage "+2401.78 V";
}
object powerflow.node {
	name "node_67";
	groupid "nodevolts";
	latitude "35N23:24.54";
	longitude "118W59:34.32";
	guid "692FB386CFA57FCB50B80B17A935D9EF";
	maximum_voltage_error "+0.00240178 V";
	voltage_A "+2373.03-2.5525d V";
	voltage_B "+2383.29-121.811d V";
	voltage_C "+2377.43+117.653d V";
	voltage_AB "+4103.64+27.8905d V";
	voltage_BC "+4133.98-92.1194d V";
	voltage_CA "+4118.28+147.52d V";
	frequency_measure_type "NONE";
	sfm_Tf "+0.01 s";
	pll_Kp "+10 pu";
	pll_Ki "+100 pu";
	measured_frequency_A "+60 Hz";
	measured_frequency_B "+60 Hz";
	measured_frequency_C "+60 Hz";
	measured_frequency "+60 Hz";
	service_status "IN_SERVICE";
	service_status_double "-1";
	previous_uptime "-1 min";
	current_uptime "+3135 min";
	GFA_freq_low_trip "+59.5 Hz";
	GFA_freq_high_trip "+60.5 Hz";
	GFA_volt_low_trip "+0.8 pu";
	GFA_volt_high_trip "+1.2 pu";
	GFA_reconnect_time "+300 s";
	GFA_freq_disconnect_time "+0.2 s";
	GFA_volt_disconnect_time "+0.2 s";
	GFA_status "TRUE";
	// class.parent = powerflow.powerflow_object
	phases "ABCN";
	nominal_voltage "+2401.78 V";
}
object powerflow.node {
	name "node_72";
	groupid "nodevolts";
	latitude "35N23:21.84";
	longitude "118W59:34.32";
	guid "14BB77099B8F8A9E50FF1EBE41689172";
	maximum_voltage_error "+0.00240178 V";
	voltage_A "+2370.24-2.61472d V";
	voltage_B "+2377.44-121.862d V";
	voltage_C "+2373.6+117.56d V";
	voltage_AB "+4095.93+27.8125d V";
	voltage_BC "+4126.45-92.1774d V";
	voltage_CA "+4111.9+147.449d V";
	frequency_measure_type "NONE";
	sfm_Tf "+0.01 s";
	pll_Kp "+10 pu";
	pll_Ki "+100 pu";
	measured_frequency_A "+60 Hz";
	measured_frequency_B "+60 Hz";
	measured_frequency_C "+60 Hz";
	measured_frequency "+60 Hz";
	service_status "IN_SERVICE";
	service_status_double "-1";
	previous_uptime "-1 min";
	current_uptime "+3135 min";
	GFA_freq_low_trip "+59.5 Hz";
	GFA_freq_high_trip "+60.5 Hz";
	GFA_volt_low_trip "+0.8 pu";
	GFA_volt_high_trip "+1.2 pu";
	GFA_reconnect_time "+300 s";
	GFA_freq_disconnect_time "+0.2 s";
	GFA_volt_disconnect_time "+0.2 s";
	GFA_status "TRUE";
	// class.parent = powerflow.powerflow_object
	phases "ABCN";
	nominal_voltage "+2401.78 V";
}
object powerflow.node {
	name "node_78";
	groupid "nodevolts";
	latitude "35N23:18.48";
	longitude "118W59:28.50";
	guid "729D8AEB9CB736DB4A7AD095425E5002";
	maximum_voltage_error "+0.00240178 V";
	voltage_A "+2365.07-2.6903d V";
	voltage_B "+2372.08-121.955d V";
	voltage_C "+2370.62+117.49d V";
	voltage_AB "+4087.21+27.7271d V";
	voltage_BC "+4118.74-92.2426d V";
	voltage_CA "+4104.94+147.361d V";
	frequency_measure_type "NONE";
	sfm_Tf "+0.01 s";
	pll_Kp "+10 pu";
	pll_Ki "+100 pu";
	measured_frequency_A "+60 Hz";
	measured_frequency_B "+60 Hz";
	measured_frequency_C "+60 Hz";
	measured_frequency "+60 Hz";
	service_status "IN_SERVICE";
	service_status_double "-1";
	previous_uptime "-1 min";
	current_uptime "+3135 min";
	GFA_freq_low_trip "+59.5 Hz";
	GFA_freq_high_trip "+60.5 Hz";
	GFA_volt_low_trip "+0.8 pu";
	GFA_volt_high_trip "+1.2 pu";
	GFA_reconnect_time "+300 s";
	GFA_freq_disconnect_time "+0.2 s";
	GFA_volt_disconnect_time "+0.2 s";
	GFA_status "TRUE";
	// class.parent = powerflow.powerflow_object
	phases "ABCN";
	nominal_voltage "+2401.78 V";
}
object powerflow.node {
	name "node_81";
	groupid "nodevolts";
	latitude "35N23:9.48";
	longitude "118W59:31.68";
	guid "79AF7420A693EAF11B3C757BDCEE051A";
	maximum_voltage_error "+0.00240178 V";
	voltage_A "+2364.46-2.75367d V";
	voltage_B "+2371.65-121.923d V";
	voltage_C "+2365+117.395d V";
	voltage_AB "+4084.32+27.7129d V";
	voltage_BC "+4116.09-92.3097d V";
	voltage_CA "+4098.89+147.317d V";
	frequency_measure_type "NONE";
	sfm_Tf "+0.01 s";
	pll_Kp "+10 pu";
	pll_Ki "+100 pu";
	measured_frequency_A "+60 Hz";
	measured_frequency_B "+60 Hz";
	measured_frequency_C "+60 Hz";
	measured_frequency "+60 Hz";
	service_status "IN_SERVICE";
	service_status_double "-1";
	previous_uptime "-1 min";
	current_uptime "+3135 min";
	GFA_freq_low_trip "+59.5 Hz";
	GFA_freq_high_trip "+60.5 Hz";
	GFA_volt_low_trip "+0.8 pu";
	GFA_volt_high_trip "+1.2 pu";
	GFA_reconnect_time "+300 s";
	GFA_freq_disconnect_time "+0.2 s";
	GFA_volt_disconnect_time "+0.2 s";
	GFA_status "TRUE";
	// class.parent = powerflow.powerflow_object
	phases "ABCN";
	nominal_voltage "+2401.78 V";
}
object powerflow.node {
	name "node_89";
	groupid "nodevolts";
	latitude "35N23:12.96";
	longitude "118W59:43.08";
	guid "6E08C81663CD5F247B981926AFC0E139";
	maximum_voltage_error "+0.00240178 V";
	voltage_A "+2359.37-2.66957d V";
	voltage_B "+2363.18-122.176d V";
	voltage_C "+2374.74+117.487d V";
	voltage_AB "+4079.64+27.6041d V";
	voltage_BC "+4110.11-92.2644d V";
	voltage_CA "+4103.1+147.302d V";
	frequency_measure_type "NONE";
	sfm_Tf "+0.01 s";
	pll_Kp "+10 pu";
	pll_Ki "+100 pu";
	measured_frequency_A "+60 Hz";
	measured_frequency_B "+60 Hz";
	measured_frequency_C "+60 Hz";
	measured_frequency "+60 Hz";
	service_status "IN_SERVICE";
	service_status_double "-1";
	previous_uptime "-1 min";
	current_uptime "+3135 min";
	GFA_freq_low_trip "+59.5 Hz";
	GFA_freq_high_trip "+60.5 Hz";
	GFA_volt_low_trip "+0.8 pu";
	GFA_volt_high_trip "+1.2 pu";
	GFA_reconnect_time "+300 s";
	GFA_freq_disconnect_time "+0.2 s";
	GFA_volt_disconnect_time "+0.2 s";
	GFA_status "TRUE";
	// class.parent = powerflow.powerflow_object
	phases "ABCN";
	nominal_voltage "+2401.78 V";
}
object powerflow.node {
	name "node_91";
	groupid "nodevolts";
	latitude "35N23:12.96";
	longitude "118W59:45.84";
	guid "9F85829D91E22CD604A1550A4B86A22";
	maximum_voltage_error "+0.00240178 V";
	voltage_A "+2358.85-2.67713d V";
	voltage_B "+2362.79-122.184d V";
	voltage_C "+2374.31+117.478d V";
	voltage_AB "+4078.87+27.5972d V";
	voltage_BC "+4109.42-92.2734d V";
	voltage_CA "+4102.24+147.293d V";
	frequency_measure_type "NONE";
	sfm_Tf "+0.01 s";
	pll_Kp "+10 pu";
	pll_Ki "+100 pu";
	measured_frequency_A "+60 Hz";
	measured_frequency_B "+60 Hz";
	measured_frequency_C "+60 Hz";
	measured_frequency "+60 Hz";
	service_status "IN_SERVICE";
	service_status_double "-1";
	previous_uptime "-1 min";
	current_uptime "+3135 min";
	GFA_freq_low_trip "+59.5 Hz";
	GFA_freq_high_trip "+60.5 Hz";
	GFA_volt_low_trip "+0.8 pu";
	GFA_volt_high_trip "+1.2 pu";
	GFA_reconnect_time "+300 s";
	GFA_freq_disconnect_time "+0.2 s";
	GFA_volt_disconnect_time "+0.2 s";
	GFA_status "TRUE";
	// class.parent = powerflow.powerflow_object
	phases "ABCN";
	nominal_voltage "+2401.78 V";
}
object powerflow.node {
	name "node_93";
	groupid "nodevolts";
	latitude "35N23:12.96";
	longitude "118W59:48.54";
	guid "24F8CECF4A75E75D42C9B66C6B723245";
	maximum_voltage_error "+0.00240178 V";
	voltage_A "+2358.01-2.68218d V";
	voltage_B "+2362.49-122.201d V";
	voltage_C "+2374.59+117.483d V";
	voltage_AB "+4078.13+27.5901d V";
	voltage_BC "+4108.95-92.275d V";
	voltage_CA "+4101.97+147.285d V";
	frequency_measure_type "NONE";
	sfm_Tf "+0.01 s";
	pll_Kp "+10 pu";
	pll_Ki "+100 pu";
	measured_frequency_A "+60 Hz";
	measured_frequency_B "+60 Hz";
	measured_frequency_C "+60 Hz";
	measured_frequency "+60 Hz";
	service_status "IN_SERVICE";
	service_status_double "-1";
	previous_uptime "-1 min";
	current_uptime "+3135 min";
	GFA_freq_low_trip "+59.5 Hz";
	GFA_freq_high_trip "+60.5 Hz";
	GFA_volt_low_trip "+0.8 pu";
	GFA_volt_high_trip "+1.2 pu";
	GFA_reconnect_time "+300 s";
	GFA_freq_disconnect_time "+0.2 s";
	GFA_volt_disconnect_time "+0.2 s";
	GFA_status "TRUE";
	// class.parent = powerflow.powerflow_object
	phases "ABCN";
	nominal_voltage "+2401.78 V";
}
object powerflow.node {
	name "node_97";
	groupid "nodevolts";
	latitude "35N23:27.00";
	longitude "118W59:34.32";
	guid "3BA399BF6ADA41602B52EE494B02B2F8";
	maximum_voltage_error "+0.00240178 V";
	voltage_A "+2370.57-2.60791d V";
	voltage_B "+2382.04-121.835d V";
	voltage_C "+2375.64+117.633d V";
	voltage_AB "+4099.77+27.8594d V";
	voltage_BC "+4131.25-92.145d V";
	voltage_CA "+4115.33+147.478d V";
	frequency_measure_type "NONE";
	sfm_Tf "+0.01 s";
	pll_Kp "+10 pu";
	pll_Ki "+100 pu";
	measured_frequency_A "+60 Hz";
	measured_frequency_B "+60 Hz";
	measured_frequency_C "+60 Hz";
	measured_frequency "+60 Hz";
	service_status "IN_SERVICE";
	service_status_double "-1";
	previous_uptime "-1 min";
	current_uptime "+3135 min";
	GFA_freq_low_trip "+59.5 Hz";
	GFA_freq_high_trip "+60.5 Hz";
	GFA_volt_low_trip "+0.8 pu";
	GFA_volt_high_trip "+1.2 pu";
	GFA_reconnect_time "+300 s";
	GFA_freq_disconnect_time "+0.2 s";
	GFA_volt_disconnect_time "+0.2 s";
	GFA_status "TRUE";
	// class.parent = powerflow.powerflow_object
	phases "ABCN";
	nominal_voltage "+2401.78 V";
}
object powerflow.node {
	name "node_101";
	groupid "nodevolts";
	latitude "35N23:27.00";
	longitude "118W59:38.58";
	guid "3ED8BA546B5F186F74F0ABCE1DCB744";
	maximum_voltage_error "+0.00240178 V";
	voltage_A "+2368.61-2.65304d V";
	voltage_B "+2381.34-121.851d V";
	voltage_C "+2374.26+117.622d V";
	voltage_AB "+4096.86+27.8382d V";
	voltage_BC "+4129.37-92.1631d V";
	voltage_CA "+4113.13+147.445d V";
	frequency_measure_type "NONE";
	sfm_Tf "+0.01 s";
	pll_Kp "+10 pu";
	pll_Ki "+100 pu";
	measured_frequency_A "+60 Hz";
	measured_frequency_B "+60 Hz";
	measured_frequency_C "+60 Hz";
	measured_frequency "+60 Hz";
	service_status "IN_SERVICE";
	service_status_double "-1";
	previous_uptime "-1 min";
	current_uptime "+3135 min";
	GFA_freq_low_trip "+59.5 Hz";
	GFA_freq_high_trip "+60.5 Hz";
	GFA_volt_low_trip "+0.8 pu";
	GFA_volt_high_trip "+1.2 pu";
	GFA_reconnect_time "+300 s";
	GFA_freq_disconnect_time "+0.2 s";
	GFA_volt_disconnect_time "+0.2 s";
	GFA_status "TRUE";
	// class.parent = powerflow.powerflow_object
	phases "ABCN";
	nominal_voltage "+2401.78 V";
}
object powerflow.node {
	name "node_105";
	groupid "nodevolts";
	latitude "35N23:29.70";
	longitude "118W59:38.58";
	guid "1B2C235249CD43FB2DB8ECB1E5FE8B77";
	maximum_voltage_error "+0.00240178 V";
	voltage_A "+2365.39-2.69523d V";
	voltage_B "+2380.93-121.898d V";
	voltage_C "+2374.93+117.653d V";
	voltage_AB "+4093.83+27.8135d V";
	voltage_BC "+4127.99-92.1639d V";
	voltage_CA "+4112.42+147.413d V";
	frequency_measure_type "NONE";
	sfm_Tf "+0.01 s";
	pll_Kp "+10 pu";
	pll_Ki "+100 pu";
	measured_frequency_A "+60 Hz";
	measured_frequency_B "+60 Hz";
	measured_frequency_C "+60 Hz";
	measured_frequency "+60 Hz";
	service_status "IN_SERVICE";
	service_status_double "-1";
	previous_uptime "-1 min";
	current_uptime "+3135 min";
	GFA_freq_low_trip "+59.5 Hz";
	GFA_freq_high_trip "+60.5 Hz";
	GFA_volt_low_trip "+0.8 pu";
	GFA_volt_high_trip "+1.2 pu";
	GFA_reconnect_time "+300 s";
	GFA_freq_disconnect_time "+0.2 s";
	GFA_volt_disconnect_time "+0.2 s";
	GFA_status "TRUE";
	// class.parent = powerflow.powerflow_object
	phases "ABCN";
	nominal_voltage "+2401.78 V";
}
object powerflow.node {
	name "node_108";
	groupid "nodevolts";
	latitude "35N23:32.94";
	longitude "118W59:38.58";
	guid "3CC62988ABA6FE8F320FD1C3140F90B6";
	maximum_voltage_error "+0.00240178 V";
	voltage_A "+2361.79-2.76797d V";
	voltage_B "+2382.51-121.911d V";
	voltage_C "+2374.54+117.696d V";
	voltage_AB "+4090.85+27.8074d V";
	voltage_BC "+4127.86-92.1627d V";
	voltage_CA "+4111.34+147.376d V";
	frequency_measure_type "NONE";
	sfm_Tf "+0.01 s";
	pll_Kp "+10 pu";
	pll_Ki "+100 pu";
	measured_frequency_A "+60 Hz";
	measured_frequency_B "+60 Hz";
	measured_frequency_C "+60 Hz";
	measured_frequency "+60 Hz";
	service_status "IN_SERVICE";
	service_status_double "-1";
	previous_uptime "-1 min";
	current_uptime "+3135 min";
	GFA_freq_low_trip "+59.5 Hz";
	GFA_freq_high_trip "+60.5 Hz";
	GFA_volt_low_trip "+0.8 pu";
	GFA_volt_high_trip "+1.2 pu";
	GFA_reconnect_time "+300 s";
	GFA_freq_disconnect_time "+0.2 s";
	GFA_volt_disconnect_time "+0.2 s";
	GFA_status "TRUE";
	// class.parent = powerflow.powerflow_object
	phases "ABCN";
	nominal_voltage "+2401.78 V";
}
object powerflow.node {
	name "node_110";
	groupid "nodevolts";
	latitude "35N23:32.94";
	longitude "118W59:29.46";
	guid "2EC7BA3E9D8788B3DA2E8BC38196AC4";
	maximum_voltage_error "+0.00240178 V";
	voltage_A "+2347.04-2.88983d V";
	voltage_AB "+2347.04-2.88983d V";
	voltage_CA "-2344.05+118.327j V";
	frequency_measure_type "NONE";
	sfm_Tf "+0.01 s";
	pll_Kp "+10 pu";
	pll_Ki "+100 pu";
	measured_frequency_A "+60 Hz";
	measured_frequency_B "+60 Hz";
	measured_frequency_C "+60 Hz";
	measured_frequency "+60 Hz";
	service_status "IN_SERVICE";
	service_status_double "-1";
	previous_uptime "-1 min";
	current_uptime "+3135 min";
	GFA_freq_low_trip "+59.5 Hz";
	GFA_freq_high_trip "+60.5 Hz";
	GFA_volt_low_trip "+0.8 pu";
	GFA_volt_high_trip "+1.2 pu";
	GFA_reconnect_time "+300 s";
	GFA_freq_disconnect_time "+0.2 s";
	GFA_volt_disconnect_time "+0.2 s";
	GFA_status "TRUE";
	// class.parent = powerflow.powerflow_object
	phases "AN";
	nominal_voltage "+2401.78 V";
}
object powerflow.node {
	name "node_135";
	groupid "nodevolts";
	latitude "35N23:15.18";
	longitude "118W59:58.26";
	guid "18620908BC128FAD759A1F2495EFF566";
	maximum_voltage_error "+0.00240178 V";
	voltage_A "+2298.52-1.39275d V";
	voltage_B "+2341.95-121.126d V";
	voltage_C "+2313.03+118.658d V";
	voltage_AB "+4013.42+29.0517d V";
	voltage_BC "+4035.74-91.439d V";
	voltage_CA "+3994.74+148.528d V";
	frequency_measure_type "NONE";
	sfm_Tf "+0.01 s";
	pll_Kp "+10 pu";
	pll_Ki "+100 pu";
	measured_frequency_A "+60 Hz";
	measured_frequency_B "+60 Hz";
	measured_frequency_C "+60 Hz";
	measured_frequency "+60 Hz";
	service_status "IN_SERVICE";
	service_status_double "-1";
	previous_uptime "-1 min";
	current_uptime "+3135 min";
	GFA_freq_low_trip "+59.5 Hz";
	GFA_freq_high_trip "+60.5 Hz";
	GFA_volt_low_trip "+0.8 pu";
	GFA_volt_high_trip "+1.2 pu";
	GFA_reconnect_time "+300 s";
	GFA_freq_disconnect_time "+0.2 s";
	GFA_volt_disconnect_time "+0.2 s";
	GFA_status "TRUE";
	// class.parent = powerflow.powerflow_object
	phases "ABCN";
	nominal_voltage "+2401.78 V";
}
object powerflow.node {
	name "node_149";
	groupid "nodevolts";
	latitude "35N23:9.84";
	longitude "119W0:11.34";
	guid "4B5B3ED96519A372B915C26F441F0D0";
	maximum_voltage_error "+0.00240178 V";
	voltage_A "+2401.73+0.00242565d V";
	voltage_B "+2401.72-119.998d V";
	voltage_C "+2401.71+120.002d V";
	voltage_AB "+4159.92+30.0023d V";
	voltage_BC "+4159.89-89.9978d V";
	voltage_CA "+4159.9+150.003d V";
	frequency_measure_type "NONE";
	sfm_Tf "+0.01 s";
	pll_Kp "+10 pu";
	pll_Ki "+100 pu";
	measured_frequency_A "+60 Hz";
	measured_frequency_B "+60 Hz";
	measured_frequency_C "+60 Hz";
	measured_frequency "+60 Hz";
	service_status "IN_SERVICE";
	service_status_double "-1";
	previous_uptime "-1 min";
	current_uptime "+3135 min";
	GFA_freq_low_trip "+59.5 Hz";
	GFA_freq_high_trip "+60.5 Hz";
	GFA_volt_low_trip "+0.8 pu";
	GFA_volt_high_trip "+1.2 pu";
	GFA_reconnect_time "+300 s";
	GFA_freq_disconnect_time "+0.2 s";
	GFA_volt_disconnect_time "+0.2 s";
	GFA_status "TRUE";
	// class.parent = powerflow.powerflow_object
	phases "ABCN";
	nominal_voltage "+2401.78 V";
}
object powerflow.node {
	name "node_150";
	groupid "nodevolts";
	latitude "35N23:9.84";
	longitude "119W0:11.34";
	guid "55A07B538659806475403317287C6AA1";
	bustype "SWING";
	maximum_voltage_error "+0.00240178 V";
	voltage_A "+2401.78+0j V";
	voltage_B "-1200.89-2080j V";
	voltage_C "-1200.89+2080j V";
	voltage_AB "+3602.67+2080j V";
	voltage_CA "-3602.67+2080j V";
	frequency_measure_type "NONE";
	sfm_Tf "+0.01 s";
	pll_Kp "+10 pu";
	pll_Ki "+100 pu";
	measured_frequency_A "+60 Hz";
	measured_frequency_B "+60 Hz";
	measured_frequency_C "+60 Hz";
	measured_frequency "+60 Hz";
	service_status "IN_SERVICE";
	service_status_double "-1";
	previous_uptime "-1 min";
	current_uptime "+3135 min";
	GFA_freq_low_trip "+59.5 Hz";
	GFA_freq_high_trip "+60.5 Hz";
	GFA_volt_low_trip "+0.8 pu";
	GFA_volt_high_trip "+1.2 pu";
	GFA_reconnect_time "+300 s";
	GFA_freq_disconnect_time "+0.2 s";
	GFA_volt_disconnect_time "+0.2 s";
	GFA_status "TRUE";
	// class.parent = powerflow.powerflow_object
	phases "ABCN";
	nominal_voltage "+2401.78 V";
}
object powerflow.node {
	name "node_151";
	groupid "nodevolts";
	latitude "35N23:24.54";
	longitude "118W59:38.58";
	guid "3C9218F1C89DCF916EEB7DCC3E215197";
	maximum_voltage_error "+0.00240178 V";
	voltage_A "+2278.28-1.64439d V";
	voltage_B "+2325.18-121.375d V";
	voltage_C "+2299.5+118.389d V";
	voltage_AB "+3981.36+28.8291d V";
	voltage_BC "+4009.86-91.6758d V";
	voltage_CA "+3965.15+148.219d V";
	frequency_measure_type "NONE";
	sfm_Tf "+0.01 s";
	pll_Kp "+10 pu";
	pll_Ki "+100 pu";
	measured_frequency_A "+60 Hz";
	measured_frequency_B "+60 Hz";
	measured_frequency_C "+60 Hz";
	measured_frequency "+60 Hz";
	service_status "IN_SERVICE";
	service_status_double "-1";
	previous_uptime "-1 min";
	current_uptime "+3135 min";
	GFA_freq_low_trip "+59.5 Hz";
	GFA_freq_high_trip "+60.5 Hz";
	GFA_volt_low_trip "+0.8 pu";
	GFA_volt_high_trip "+1.2 pu";
	GFA_reconnect_time "+300 s";
	GFA_freq_disconnect_time "+0.2 s";
	GFA_volt_disconnect_time "+0.2 s";
	GFA_status "TRUE";
	// class.parent = powerflow.powerflow_object
	phases "ABCN";
	nominal_voltage "+2401.78 V";
}
object powerflow.node {
	name "node_152";
	groupid "nodevolts";
	latitude "35N23:7.02";
	longitude "118W59:58.26";
	guid "5797FEDF46626FE95B23C50A30146A33";
	maximum_voltage_error "+0.00240178 V";
	voltage_A "+2319.92-0.93987d V";
	voltage_B "+2351.61-120.876d V";
	voltage_C "+2331.68+118.739d V";
	voltage_AB "+4044.39+29.3168d V";
	voltage_BC "+4063.71-91.2082d V";
	voltage_CA "+4021.87+148.815d V";
	frequency_measure_type "NONE";
	sfm_Tf "+0.01 s";
	pll_Kp "+10 pu";
	pll_Ki "+100 pu";
	measured_frequency_A "+60 Hz";
	measured_frequency_B "+60 Hz";
	measured_frequency_C "+60 Hz";
	measured_frequency "+60 Hz";
	service_status "IN_SERVICE";
	service_status_double "-1";
	previous_uptime "-1 min";
	current_uptime "+3135 min";
	GFA_freq_low_trip "+59.5 Hz";
	GFA_freq_high_trip "+60.5 Hz";
	GFA_volt_low_trip "+0.8 pu";
	GFA_volt_high_trip "+1.2 pu";
	GFA_reconnect_time "+300 s";
	GFA_freq_disconnect_time "+0.2 s";
	GFA_volt_disconnect_time "+0.2 s";
	GFA_status "TRUE";
	// class.parent = powerflow.powerflow_object
	phases "ABCN";
	nominal_voltage "+2401.78 V";
}
object powerflow.node {
	name "node_160";
	groupid "nodevolts";
	latitude "35N23:24.54";
	longitude "118W59:34.32";
	guid "5BA356335412850E298E6355A659C237";
	maximum_voltage_error "+0.00240178 V";
	voltage_A "+2244.49-2.35826d V";
	voltage_B "+2302.01-121.69d V";
	voltage_C "+2272.38+117.78d V";
	voltage_AB "+3924.16+28.4002d V";
	voltage_BC "+3972.11-92.1668d V";
	voltage_CA "+3914.47+147.507d V";
	frequency_measure_type "NONE";
	sfm_Tf "+0.01 s";
	pll_Kp "+10 pu";
	pll_Ki "+100 pu";
	measured_frequency_A "+60 Hz";
	measured_frequency_B "+60 Hz";
	measured_frequency_C "+60 Hz";
	measured_frequency "+60 Hz";
	service_status "IN_SERVICE";
	service_status_double "-1";
	previous_uptime "-1 min";
	current_uptime "+3135 min";
	GFA_freq_low_trip "+59.5 Hz";
	GFA_freq_high_trip "+60.5 Hz";
	GFA_volt_low_trip "+0.8 pu";
	GFA_volt_high_trip "+1.2 pu";
	GFA_reconnect_time "+300 s";
	GFA_freq_disconnect_time "+0.2 s";
	GFA_volt_disconnect_time "+0.2 s";
	GFA_status "TRUE";
	// class.parent = powerflow.powerflow_object
	phases "ABCN";
	nominal_voltage "+2401.78 V";
}
object powerflow.node {
	name "node_197";
	groupid "nodevolts";
	latitude "35N23:27.00";
	longitude "118W59:34.32";
	guid "4851F2468F757E666D41644446B4656C";
	maximum_voltage_error "+0.00240178 V";
	voltage_A "+2370.57-2.6077d V";
	voltage_B "+2382.03-121.835d V";
	voltage_C "+2375.64+117.634d V";
	voltage_AB "+4099.77+27.8595d V";
	voltage_BC "+4131.25-92.1449d V";
	voltage_CA "+4115.33+147.478d V";
	frequency_measure_type "NONE";
	sfm_Tf "+0.01 s";
	pll_Kp "+10 pu";
	pll_Ki "+100 pu";
	measured_frequency_A "+60 Hz";
	measured_frequency_B "+60 Hz";
	measured_frequency_C "+60 Hz";
	measured_frequency "+60 Hz";
	service_status "IN_SERVICE";
	service_status_double "-1";
	previous_uptime "-1 min";
	current_uptime "+3135 min";
	GFA_freq_low_trip "+59.5 Hz";
	GFA_freq_high_trip "+60.5 Hz";
	GFA_volt_low_trip "+0.8 pu";
	GFA_volt_high_trip "+1.2 pu";
	GFA_reconnect_time "+300 s";
	GFA_freq_disconnect_time "+0.2 s";
	GFA_volt_disconnect_time "+0.2 s";
	GFA_status "TRUE";
	// class.parent = powerflow.powerflow_object
	phases "ABCN";
	nominal_voltage "+2401.78 V";
}
object powerflow.node {
	name "node_250";
	groupid "nodevolts";
	latitude "35N23:28.26";
	longitude "118W59:51.60";
	guid "3C2A9C0516EA8E38225FC8CDE2D0E389";
	maximum_voltage_error "+0.00240178 V";
	voltage_A "+2294.28-1.61849d V";
	voltage_B "+2344.91-121.071d V";
	voltage_C "+2301.83+118.582d V";
	voltage_AB "+4006.62+29.0202d V";
	voltage_BC "+4031.27-91.5492d V";
	voltage_CA "+3984.36+148.428d V";
	frequency_measure_type "NONE";
	sfm_Tf "+0.01 s";
	pll_Kp "+10 pu";
	pll_Ki "+100 pu";
	measured_frequency_A "+60 Hz";
	measured_frequency_B "+60 Hz";
	measured_frequency_C "+60 Hz";
	measured_frequency "+60 Hz";
	service_status "IN_SERVICE";
	service_status_double "-1";
	previous_uptime "-1 min";
	current_uptime "+3135 min";
	GFA_freq_low_trip "+59.5 Hz";
	GFA_freq_high_trip "+60.5 Hz";
	GFA_volt_low_trip "+0.8 pu";
	GFA_volt_high_trip "+1.2 pu";
	GFA_reconnect_time "+300 s";
	GFA_freq_disconnect_time "+0.2 s";
	GFA_volt_disconnect_time "+0.2 s";
	GFA_status "TRUE";
	// class.parent = powerflow.powerflow_object
	phases "ABCN";
	nominal_voltage "+2401.78 V";
}
object powerflow.node {
	name "node_300";
	groupid "nodevolts";
	latitude "35N23:24.54";
	longitude "118W59:38.58";
	guid "639A965E7D8E6EBE31898E7F2A3588C6";
	maximum_voltage_error "+0.00240178 V";
	voltage_A "+2361.79-2.76797d V";
	voltage_B "+2382.51-121.911d V";
	voltage_C "+2374.54+117.696d V";
	voltage_AB "+4090.85+27.8074d V";
	voltage_BC "+4127.86-92.1627d V";
	voltage_CA "+4111.34+147.376d V";
	frequency_measure_type "NONE";
	sfm_Tf "+0.01 s";
	pll_Kp "+10 pu";
	pll_Ki "+100 pu";
	measured_frequency_A "+60 Hz";
	measured_frequency_B "+60 Hz";
	measured_frequency_C "+60 Hz";
	measured_frequency "+60 Hz";
	service_status "IN_SERVICE";
	service_status_double "-1";
	previous_uptime "-1 min";
	current_uptime "+3135 min";
	GFA_freq_low_trip "+59.5 Hz";
	GFA_freq_high_trip "+60.5 Hz";
	GFA_volt_low_trip "+0.8 pu";
	GFA_volt_high_trip "+1.2 pu";
	GFA_reconnect_time "+300 s";
	GFA_freq_disconnect_time "+0.2 s";
	GFA_volt_disconnect_time "+0.2 s";
	GFA_status "TRUE";
	// class.parent = powerflow.powerflow_object
	phases "ABCN";
	nominal_voltage "+2401.78 V";
}
object powerflow.node {
	name "node_450";
	groupid "nodevolts";
	latitude "35N23:27.00";
	longitude "118W59:11.04";
	guid "67B30B462D31AB9956D81E4282DC201C";
	maximum_voltage_error "+0.00240178 V";
	voltage_A "+2371.13-2.60934d V";
	voltage_B "+2379.25-121.845d V";
	voltage_C "+2373.57+117.566d V";
	voltage_AB "+4098.01+27.8304d V";
	voltage_BC "+4128.23-92.1782d V";
	voltage_CA "+4112.67+147.462d V";
	frequency_measure_type "NONE";
	sfm_Tf "+0.01 s";
	pll_Kp "+10 pu";
	pll_Ki "+100 pu";
	measured_frequency_A "+60 Hz";
	measured_frequency_B "+60 Hz";
	measured_frequency_C "+60 Hz";
	measured_frequency "+60 Hz";
	service_status "IN_SERVICE";
	service_status_double "-1";
	previous_uptime "-1 min";
	current_uptime "+3135 min";
	GFA_freq_low_trip "+59.5 Hz";
	GFA_freq_high_trip "+60.5 Hz";
	GFA_volt_low_trip "+0.8 pu";
	GFA_volt_high_trip "+1.2 pu";
	GFA_reconnect_time "+300 s";
	GFA_freq_disconnect_time "+0.2 s";
	GFA_volt_disconnect_time "+0.2 s";
	GFA_status "TRUE";
	// class.parent = powerflow.powerflow_object
	phases "ABCN";
	nominal_voltage "+2401.78 V";
}
object powerflow.node {
	name "node_610";
	groupid "nodevolts";
	latitude "35N23:6.96";
	longitude "118W59:34.32";
	guid "74D3AE5B528D864830E71C884685821A";
	maximum_voltage_error "+0.00240178 V";
	voltage_A "+258.981-2.35922d V";
	voltage_B "+265.617-121.69d V";
	voltage_C "+262.199+117.779d V";
	voltage_AB "+452.789+28.3993d V";
	voltage_BC "+458.322-92.1676d V";
	voltage_CA "+451.672+147.506d V";
	frequency_measure_type "NONE";
	sfm_Tf "+0.01 s";
	pll_Kp "+10 pu";
	pll_Ki "+100 pu";
	measured_frequency_A "+60 Hz";
	measured_frequency_B "+60 Hz";
	measured_frequency_C "+60 Hz";
	measured_frequency "+60 Hz";
	service_status "IN_SERVICE";
	service_status_double "-1";
	previous_uptime "-1 min";
	current_uptime "+3135 min";
	GFA_freq_low_trip "+59.5 Hz";
	GFA_freq_high_trip "+60.5 Hz";
	GFA_volt_low_trip "+0.8 pu";
	GFA_volt_high_trip "+1.2 pu";
	GFA_reconnect_time "+300 s";
	GFA_freq_disconnect_time "+0.2 s";
	GFA_volt_disconnect_time "+0.2 s";
	GFA_status "TRUE";
	// class.parent = powerflow.powerflow_object
	phases "ABCN";
	nominal_voltage "+2401.78 V";
}
object powerflow.node {
	name "node_901";
	groupid "nodevolts";
	latitude "35N23:9.24";
	longitude "119W0:1.86";
	guid "2C65D08AFBF9EE5F39D7B71DF9934F4";
	maximum_voltage_error "+0.00240178 V";
	voltage_A "+2382-0.361864d V";
	voltage_AB "+2382-0.361864d V";
	voltage_CA "-2381.95+15.044j V";
	frequency_measure_type "NONE";
	sfm_Tf "+0.01 s";
	pll_Kp "+10 pu";
	pll_Ki "+100 pu";
	measured_frequency_A "+60 Hz";
	measured_frequency_B "+60 Hz";
	measured_frequency_C "+60 Hz";
	measured_frequency "+60 Hz";
	service_status "IN_SERVICE";
	service_status_double "-1";
	previous_uptime "-1 min";
	current_uptime "+3135 min";
	GFA_freq_low_trip "+59.5 Hz";
	GFA_freq_high_trip "+60.5 Hz";
	GFA_volt_low_trip "+0.8 pu";
	GFA_volt_high_trip "+1.2 pu";
	GFA_reconnect_time "+300 s";
	GFA_freq_disconnect_time "+0.2 s";
	GFA_volt_disconnect_time "+0.2 s";
	GFA_status "TRUE";
	// class.parent = powerflow.powerflow_object
	phases "AN";
	nominal_voltage "+2401.78 V";
}
object powerflow.node {
	name "node_2501";
	groupid "nodevolts";
	latitude "35N23:23.28";
	longitude "118W59:58.26";
	guid "57BFDDF0BF8714466957A4EC1BF1B4D6";
	maximum_voltage_error "+0.00240178 V";
	voltage_A "+2395.2-1.56531d V";
	voltage_C "+2391.4+118.611d V";
	voltage_AB "+2395.2-1.56531d V";
	voltage_BC "+1145.15-2099.38j V";
	voltage_CA "+4148.99+148.549d V";
	frequency_measure_type "NONE";
	sfm_Tf "+0.01 s";
	pll_Kp "+10 pu";
	pll_Ki "+100 pu";
	measured_frequency_A "+60 Hz";
	measured_frequency_B "+60 Hz";
	measured_frequency_C "+60 Hz";
	measured_frequency "+60 Hz";
	service_status "IN_SERVICE";
	service_status_double "-1";
	previous_uptime "-1 min";
	current_uptime "+3135 min";
	GFA_freq_low_trip "+59.5 Hz";
	GFA_freq_high_trip "+60.5 Hz";
	GFA_volt_low_trip "+0.8 pu";
	GFA_volt_high_trip "+1.2 pu";
	GFA_reconnect_time "+300 s";
	GFA_freq_disconnect_time "+0.2 s";
	GFA_volt_disconnect_time "+0.2 s";
	GFA_status "TRUE";
	// class.parent = powerflow.powerflow_object
	phases "ACN";
	nominal_voltage "+2401.78 V";
}
...